* Model of an ideal NPN bipolar junction transistor (BJT) for use in SPICE simulations. The parameters specified include:
*   - Is: Saturation current (1.8e-15 A)
*   - Bf: Forward current gain (100)
*   - Vaf: Early voltage (100 V)    

.MODEL idealNPN NPN (Is=1.8e-15 Bf=100 Vaf=100)
