.model 2N2222 NPN (
+ IS=1.8108e-14
+ BF=221.74
+ NF=1
+ VAF=113.9
+ IKF=0.5
+ ISE=5.5e-14
+ NE=1.4992
+ BR=3.5784
+ NR=1
+ VAR=50
+ IKR=0.225
+ ISC=2.25e-13
+ NC=2
+ RB=4
+ IRB=0.5
+ RBM=0.5
+ RE=0.4
+ RC=0.3
+ CJE=2.25e-11
+ VJE=0.7
+ MJE=0.3
+ CJC=1.5e-11
+ VJC=0.75
+ MJC=0.35
+ TF=4.5e-10
+ XTF=4
+ VTF=4
+ ITF=0.4
+ TR=1.5e-7
+ XTB=1.5
+ EG=1.11
+ XTI=3
+ KF=0
+ AF=1
+)