.MODEL 2N3904 NPN (IS=1e-14 BF=300 VAF=100 IKF=0.1 ISE=1e-14 NE=1.5 
+ BR=4 NR=1 VAR=24 IKR=0.3 RE=0.1 RB=10 RC=1 CJE=4.5p VJE=0.75 
+ MJE=0.33 CJC=3.5p VJC=0.75 MJC=0.33 TF=4e-10 TR=1e-8)
